[General]
network = Test1rip
record-eventlog = false
# debug-on-errors = true
tkenv-plugin-path = ../../../etc/plugins
sim-time-limit = 600s


**.enableIPv6 = false
**.enableCLNS = false
